Alpine_SI/OutputDSS.dss
Clear

New Circuit.ALPINE_Reduced_Reduced bus1=SourceBus basekv=12 R1=0.063 X1=0.5495 R0=0.0152 X0=1.3295 Sequence=pos
New Line.0355_03552576 Phases=3 bus1=0355.1.2.3 bus2=03552576.1.2.3 Units=km Length=2.7004518 Rmatrix=[ 0.207448791824    0.0526367641508    0.0526367641506| 0.0526367641508     0.207448775658    0.0526367604981| 0.0526367641506    0.0526367604981     0.207448775657|] Xmatrix=[0.638779965629     0.241814527614     0.241814527614| 0.241814527614     0.638779941613     0.241814520864| 0.241814527614     0.241814520864     0.638779941612|] Cmatrix=[0                  0                  0| 0                  0                  0| 0                  0                  0|]
New Line.03552576_03552577 Phases=3 bus1=03552576.1.2.3 bus2=03552577.1.2.3 Units=km Length=0.0454152 Rmatrix=[ 0.251312335958    0.0629921259842    0.0629921259842| 0.0629921259842     0.251312335958    0.0629921259842| 0.0629921259842    0.0629921259842     0.251312335958|] Xmatrix=[0.652230971128     0.246719160105     0.246719160105| 0.246719160105     0.652230971129     0.246719160105| 0.246719160105     0.246719160105     0.652230971129|] Cmatrix=[0                  0                  0| 0                  0                  0| 0                  0                  0|]
New Transformer.ALPINE Phases=3 Windings=2 Buses=[SourceBus 0355] Conns=[wye wye] kVs=[12  12] kVAs=[20000  20000] %Noloadloss=0 %imag=0 sub=y
New Capacitor.355_1385CW Phases=3 Bus1=03552577 Kvar=1350 Kv=12 Conn=wye states=1 Numsteps=20
New Capcontrol.capctrl_355_1385CW Element=line.03552576_03552577 Capacitor=355_1385CW Type=voltage CTRatio=100 OFFsetting=125 ONsetting=119 PTPhase=3 PTRatio=57.75 Vmax=123 Vmin=119 VoltOverride=TRUE
New XYCurve.myeff npts=4 Xarray=[0   25   75  100] Yarray=[1  1  1  1]
New XYCurve.mypvst npts=4 Xarray=[0.1         0.2         0.4           1] Yarray=[1  1  1  1]
New XYCurve.CurveFor_InvForPV_0355.1_from_03551.1 npts=6 Xarray=[0.5        0.95        0.98        1.02        1.05         1.5] Yarray=[1  1  0  0 -1 -1]
New XYCurve.CurveFor_InvForPV_0355.2_from_03551.2 npts=6 Xarray=[0.5        0.95        0.98        1.02        1.05         1.5] Yarray=[1  1  0  0 -1 -1]
New XYCurve.CurveFor_InvForPV_0355.3_from_03551.3 npts=6 Xarray=[0.5        0.95        0.98        1.02        1.05         1.5] Yarray=[1  1  0  0 -1 -1]
New XYCurve.CurveFor_InvForPV_0355.1_from_03552.1 npts=6 Xarray=[0.5        0.95        0.98        1.02        1.05         1.5] Yarray=[1  1  0  0 -1 -1]
New XYCurve.CurveFor_InvForPV_0355.2_from_03552.2 npts=6 Xarray=[0.5        0.95        0.98        1.02        1.05         1.5] Yarray=[1  1  0  0 -1 -1]
New XYCurve.CurveFor_InvForPV_0355.3_from_03552.3 npts=6 Xarray=[0.5        0.95        0.98        1.02        1.05         1.5] Yarray=[1  1  0  0 -1 -1]
New XYCurve.CurveFor_InvForPV_0355.1_from_03552A.1 npts=6 Xarray=[0.5        0.95        0.98        1.02        1.05         1.5] Yarray=[1  1  0  0 -1 -1]
New XYCurve.CurveFor_InvForPV_0355.2_from_03552A.2 npts=6 Xarray=[0.5        0.95        0.98        1.02        1.05         1.5] Yarray=[1  1  0  0 -1 -1]
New XYCurve.CurveFor_InvForPV_0355.3_from_03552A.3 npts=6 Xarray=[0.5        0.95        0.98        1.02        1.05         1.5] Yarray=[1  1  0  0 -1 -1]
New XYCurve.CurveFor_InvForPV_0355.1_from_035511.1 npts=6 Xarray=[0.5        0.95        0.98        1.02        1.05         1.5] Yarray=[1  1  0  0 -1 -1]
New XYCurve.CurveFor_InvForPV_03552576.1_from_035511.1 npts=6 Xarray=[0.5        0.95        0.98        1.02        1.05         1.5] Yarray=[1  1  0  0 -1 -1]
New XYCurve.CurveFor_InvForPV_0355.1_from_035510A.1 npts=6 Xarray=[0.5        0.95        0.98        1.02        1.05         1.5] Yarray=[1  1  0  0 -1 -1]
New XYCurve.CurveFor_InvForPV_03552576.1_from_035510A.1 npts=6 Xarray=[0.5        0.95        0.98        1.02        1.05         1.5] Yarray=[1  1  0  0 -1 -1]
New XYCurve.CurveFor_InvForPV_0355.1_from_035512.1 npts=6 Xarray=[0.5        0.95        0.98        1.02        1.05         1.5] Yarray=[1  1  0  0 -1 -1]
New XYCurve.CurveFor_InvForPV_03552576.1_from_035512.1 npts=6 Xarray=[0.5        0.95        0.98        1.02        1.05         1.5] Yarray=[1  1  0  0 -1 -1]
New XYCurve.CurveFor_InvForPV_0355.2_from_035512.2 npts=6 Xarray=[0.5        0.95        0.98        1.02        1.05         1.5] Yarray=[1  1  0  0 -1 -1]
New XYCurve.CurveFor_InvForPV_03552576.2_from_035512.2 npts=6 Xarray=[0.5        0.95        0.98        1.02        1.05         1.5] Yarray=[1  1  0  0 -1 -1]
New XYCurve.CurveFor_InvForPV_0355.3_from_035512.3 npts=6 Xarray=[0.5        0.95        0.98        1.02        1.05         1.5] Yarray=[1  1  0  0 -1 -1]
New XYCurve.CurveFor_InvForPV_03552576.3_from_035512.3 npts=6 Xarray=[0.5        0.95        0.98        1.02        1.05         1.5] Yarray=[1  1  0  0 -1 -1]
New XYCurve.CurveFor_InvForPV_0355.1_from_03551201.1 npts=6 Xarray=[0.5        0.95        0.98        1.02        1.05         1.5] Yarray=[1  1  0  0 -1 -1]
New XYCurve.CurveFor_InvForPV_03552576.1_from_03551201.1 npts=6 Xarray=[0.5        0.95        0.98        1.02        1.05         1.5] Yarray=[1  1  0  0 -1 -1]
New XYCurve.CurveFor_InvForPV_0355.3_from_03551201.3 npts=6 Xarray=[0.5        0.95        0.98        1.02        1.05         1.5] Yarray=[1  1  0  0 -1 -1]
New XYCurve.CurveFor_InvForPV_03552576.3_from_03551201.3 npts=6 Xarray=[0.5        0.95        0.98        1.02        1.05         1.5] Yarray=[1  1  0  0 -1 -1]
New XYCurve.CurveFor_InvForPV_0355.1_from_03551306.1 npts=6 Xarray=[0.5        0.95        0.98        1.02        1.05         1.5] Yarray=[1  1  0  0 -1 -1]
New XYCurve.CurveFor_InvForPV_03552576.1_from_03551306.1 npts=6 Xarray=[0.5        0.95        0.98        1.02        1.05         1.5] Yarray=[1  1  0  0 -1 -1]
New XYCurve.CurveFor_InvForPV_0355.2_from_03551306.2 npts=6 Xarray=[0.5        0.95        0.98        1.02        1.05         1.5] Yarray=[1  1  0  0 -1 -1]
New XYCurve.CurveFor_InvForPV_03552576.2_from_03551306.2 npts=6 Xarray=[0.5        0.95        0.98        1.02        1.05         1.5] Yarray=[1  1  0  0 -1 -1]
New XYCurve.CurveFor_InvForPV_0355.3_from_03551306.3 npts=6 Xarray=[0.5        0.95        0.98        1.02        1.05         1.5] Yarray=[1  1  0  0 -1 -1]
New XYCurve.CurveFor_InvForPV_03552576.3_from_03551306.3 npts=6 Xarray=[0.5        0.95        0.98        1.02        1.05         1.5] Yarray=[1  1  0  0 -1 -1]
New XYCurve.CurveFor_InvForPV_0355.1_from_035514.1 npts=6 Xarray=[0.5        0.95        0.98        1.02        1.05         1.5] Yarray=[1  1  0  0 -1 -1]
New XYCurve.CurveFor_InvForPV_03552576.1_from_035514.1 npts=6 Xarray=[0.5        0.95        0.98        1.02        1.05         1.5] Yarray=[1  1  0  0 -1 -1]
New XYCurve.CurveFor_InvForPV_0355.2_from_035514.2 npts=6 Xarray=[0.5        0.95        0.98        1.02        1.05         1.5] Yarray=[1  1  0  0 -1 -1]
New XYCurve.CurveFor_InvForPV_03552576.2_from_035514.2 npts=6 Xarray=[0.5        0.95        0.98        1.02        1.05         1.5] Yarray=[1  1  0  0 -1 -1]
New XYCurve.CurveFor_InvForPV_0355.3_from_035514.3 npts=6 Xarray=[0.5        0.95        0.98        1.02        1.05         1.5] Yarray=[1  1  0  0 -1 -1]
New XYCurve.CurveFor_InvForPV_03552576.3_from_035514.3 npts=6 Xarray=[0.5        0.95        0.98        1.02        1.05         1.5] Yarray=[1  1  0  0 -1 -1]
New XYCurve.CurveFor_InvForPV_0355.1_from_035513A.1 npts=6 Xarray=[0.5        0.95        0.98        1.02        1.05         1.5] Yarray=[1  1  0  0 -1 -1]
New XYCurve.CurveFor_InvForPV_03552576.1_from_035513A.1 npts=6 Xarray=[0.5        0.95        0.98        1.02        1.05         1.5] Yarray=[1  1  0  0 -1 -1]
New XYCurve.CurveFor_InvForPV_0355.3_from_035513A.3 npts=6 Xarray=[0.5        0.95        0.98        1.02        1.05         1.5] Yarray=[1  1  0  0 -1 -1]
New XYCurve.CurveFor_InvForPV_03552576.3_from_035513A.3 npts=6 Xarray=[0.5        0.95        0.98        1.02        1.05         1.5] Yarray=[1  1  0  0 -1 -1]
New XYCurve.CurveFor_InvForPV_0355.1_from_03551306A.1 npts=6 Xarray=[0.5        0.95        0.98        1.02        1.05         1.5] Yarray=[1  1  0  0 -1 -1]
New XYCurve.CurveFor_InvForPV_03552576.1_from_03551306A.1 npts=6 Xarray=[0.5        0.95        0.98        1.02        1.05         1.5] Yarray=[1  1  0  0 -1 -1]
New XYCurve.CurveFor_InvForPV_0355.2_from_03551306A.2 npts=6 Xarray=[0.5        0.95        0.98        1.02        1.05         1.5] Yarray=[1  1  0  0 -1 -1]
New XYCurve.CurveFor_InvForPV_03552576.2_from_03551306A.2 npts=6 Xarray=[0.5        0.95        0.98        1.02        1.05         1.5] Yarray=[1  1  0  0 -1 -1]
New XYCurve.CurveFor_InvForPV_0355.3_from_03551306A.3 npts=6 Xarray=[0.5        0.95        0.98        1.02        1.05         1.5] Yarray=[1  1  0  0 -1 -1]
New XYCurve.CurveFor_InvForPV_03552576.3_from_03551306A.3 npts=6 Xarray=[0.5        0.95        0.98        1.02        1.05         1.5] Yarray=[1  1  0  0 -1 -1]
New XYCurve.CurveFor_InvForPV_0355.2_from_035515.2 npts=6 Xarray=[0.5        0.95        0.98        1.02        1.05         1.5] Yarray=[1  1  0  0 -1 -1]
New XYCurve.CurveFor_InvForPV_03552576.2_from_035515.2 npts=6 Xarray=[0.5        0.95        0.98        1.02        1.05         1.5] Yarray=[1  1  0  0 -1 -1]
New XYCurve.CurveFor_InvForPV_0355.3_from_035515.3 npts=6 Xarray=[0.5        0.95        0.98        1.02        1.05         1.5] Yarray=[1  1  0  0 -1 -1]
New XYCurve.CurveFor_InvForPV_03552576.3_from_035515.3 npts=6 Xarray=[0.5        0.95        0.98        1.02        1.05         1.5] Yarray=[1  1  0  0 -1 -1]
New XYCurve.CurveFor_InvForPV_0355.1_from_03551301.1 npts=6 Xarray=[0.5        0.95        0.98        1.02        1.05         1.5] Yarray=[1  1  0  0 -1 -1]
New XYCurve.CurveFor_InvForPV_03552576.1_from_03551301.1 npts=6 Xarray=[0.5        0.95        0.98        1.02        1.05         1.5] Yarray=[1  1  0  0 -1 -1]
New XYCurve.CurveFor_InvForPV_0355.3_from_03551301.3 npts=6 Xarray=[0.5        0.95        0.98        1.02        1.05         1.5] Yarray=[1  1  0  0 -1 -1]
New XYCurve.CurveFor_InvForPV_03552576.3_from_03551301.3 npts=6 Xarray=[0.5        0.95        0.98        1.02        1.05         1.5] Yarray=[1  1  0  0 -1 -1]
New XYCurve.CurveFor_InvForPV_0355.1_from_03551302.1 npts=6 Xarray=[0.5        0.95        0.98        1.02        1.05         1.5] Yarray=[1  1  0  0 -1 -1]
New XYCurve.CurveFor_InvForPV_03552576.1_from_03551302.1 npts=6 Xarray=[0.5        0.95        0.98        1.02        1.05         1.5] Yarray=[1  1  0  0 -1 -1]
New XYCurve.CurveFor_InvForPV_0355.3_from_03551302.3 npts=6 Xarray=[0.5        0.95        0.98        1.02        1.05         1.5] Yarray=[1  1  0  0 -1 -1]
New XYCurve.CurveFor_InvForPV_03552576.3_from_03551302.3 npts=6 Xarray=[0.5        0.95        0.98        1.02        1.05         1.5] Yarray=[1  1  0  0 -1 -1]
New XYCurve.CurveFor_InvForPV_0355.1_from_03551307.1 npts=6 Xarray=[0.5        0.95        0.98        1.02        1.05         1.5] Yarray=[1  1  0  0 -1 -1]
New XYCurve.CurveFor_InvForPV_03552576.1_from_03551307.1 npts=6 Xarray=[0.5        0.95        0.98        1.02        1.05         1.5] Yarray=[1  1  0  0 -1 -1]
New XYCurve.CurveFor_InvForPV_0355.3_from_03551307.3 npts=6 Xarray=[0.5        0.95        0.98        1.02        1.05         1.5] Yarray=[1  1  0  0 -1 -1]
New XYCurve.CurveFor_InvForPV_03552576.3_from_03551307.3 npts=6 Xarray=[0.5        0.95        0.98        1.02        1.05         1.5] Yarray=[1  1  0  0 -1 -1]
New XYCurve.CurveFor_InvForPV_0355.1_from_03551308.1 npts=6 Xarray=[0.5        0.95        0.98        1.02        1.05         1.5] Yarray=[1  1  0  0 -1 -1]
New XYCurve.CurveFor_InvForPV_03552576.1_from_03551308.1 npts=6 Xarray=[0.5        0.95        0.98        1.02        1.05         1.5] Yarray=[1  1  0  0 -1 -1]
New XYCurve.CurveFor_InvForPV_0355.2_from_03551308.2 npts=6 Xarray=[0.5        0.95        0.98        1.02        1.05         1.5] Yarray=[1  1  0  0 -1 -1]
New XYCurve.CurveFor_InvForPV_03552576.2_from_03551308.2 npts=6 Xarray=[0.5        0.95        0.98        1.02        1.05         1.5] Yarray=[1  1  0  0 -1 -1]
New XYCurve.CurveFor_InvForPV_0355.3_from_03551308.3 npts=6 Xarray=[0.5        0.95        0.98        1.02        1.05         1.5] Yarray=[1  1  0  0 -1 -1]
New XYCurve.CurveFor_InvForPV_03552576.3_from_03551308.3 npts=6 Xarray=[0.5        0.95        0.98        1.02        1.05         1.5] Yarray=[1  1  0  0 -1 -1]
New XYCurve.CurveFor_InvForPV_0355.1_from_03551308A.1 npts=6 Xarray=[0.5        0.95        0.98        1.02        1.05         1.5] Yarray=[1  1  0  0 -1 -1]
New XYCurve.CurveFor_InvForPV_03552576.1_from_03551308A.1 npts=6 Xarray=[0.5        0.95        0.98        1.02        1.05         1.5] Yarray=[1  1  0  0 -1 -1]
New XYCurve.CurveFor_InvForPV_0355.3_from_03551308A.3 npts=6 Xarray=[0.5        0.95        0.98        1.02        1.05         1.5] Yarray=[1  1  0  0 -1 -1]
New XYCurve.CurveFor_InvForPV_03552576.3_from_03551308A.3 npts=6 Xarray=[0.5        0.95        0.98        1.02        1.05         1.5] Yarray=[1  1  0  0 -1 -1]
New XYCurve.CurveFor_InvForPV_0355.1_from_03551315.1 npts=6 Xarray=[0.5        0.95        0.98        1.02        1.05         1.5] Yarray=[1  1  0  0 -1 -1]
New XYCurve.CurveFor_InvForPV_03552576.1_from_03551315.1 npts=6 Xarray=[0.5        0.95        0.98        1.02        1.05         1.5] Yarray=[1  1  0  0 -1 -1]
New XYCurve.CurveFor_InvForPV_0355.3_from_03551315.3 npts=6 Xarray=[0.5        0.95        0.98        1.02        1.05         1.5] Yarray=[1  1  0  0 -1 -1]
New XYCurve.CurveFor_InvForPV_03552576.3_from_03551315.3 npts=6 Xarray=[0.5        0.95        0.98        1.02        1.05         1.5] Yarray=[1  1  0  0 -1 -1]
New XYCurve.CurveFor_InvForPV_0355.1_from_03551309.1 npts=6 Xarray=[0.5        0.95        0.98        1.02        1.05         1.5] Yarray=[1  1  0  0 -1 -1]
New XYCurve.CurveFor_InvForPV_03552576.1_from_03551309.1 npts=6 Xarray=[0.5        0.95        0.98        1.02        1.05         1.5] Yarray=[1  1  0  0 -1 -1]
New XYCurve.CurveFor_InvForPV_0355.3_from_03551309.3 npts=6 Xarray=[0.5        0.95        0.98        1.02        1.05         1.5] Yarray=[1  1  0  0 -1 -1]
New XYCurve.CurveFor_InvForPV_03552576.3_from_03551309.3 npts=6 Xarray=[0.5        0.95        0.98        1.02        1.05         1.5] Yarray=[1  1  0  0 -1 -1]
New XYCurve.CurveFor_InvForPV_0355.1_from_03551310.1 npts=6 Xarray=[0.5        0.95        0.98        1.02        1.05         1.5] Yarray=[1  1  0  0 -1 -1]
New XYCurve.CurveFor_InvForPV_03552576.1_from_03551310.1 npts=6 Xarray=[0.5        0.95        0.98        1.02        1.05         1.5] Yarray=[1  1  0  0 -1 -1]
New XYCurve.CurveFor_InvForPV_0355.3_from_03551310.3 npts=6 Xarray=[0.5        0.95        0.98        1.02        1.05         1.5] Yarray=[1  1  0  0 -1 -1]
New XYCurve.CurveFor_InvForPV_03552576.3_from_03551310.3 npts=6 Xarray=[0.5        0.95        0.98        1.02        1.05         1.5] Yarray=[1  1  0  0 -1 -1]
New XYCurve.CurveFor_InvForPV_0355.1_from_03551311.1 npts=6 Xarray=[0.5        0.95        0.98        1.02        1.05         1.5] Yarray=[1  1  0  0 -1 -1]
New XYCurve.CurveFor_InvForPV_03552576.1_from_03551311.1 npts=6 Xarray=[0.5        0.95        0.98        1.02        1.05         1.5] Yarray=[1  1  0  0 -1 -1]
New XYCurve.CurveFor_InvForPV_0355.3_from_03551311.3 npts=6 Xarray=[0.5        0.95        0.98        1.02        1.05         1.5] Yarray=[1  1  0  0 -1 -1]
New XYCurve.CurveFor_InvForPV_03552576.3_from_03551311.3 npts=6 Xarray=[0.5        0.95        0.98        1.02        1.05         1.5] Yarray=[1  1  0  0 -1 -1]
New XYCurve.CurveFor_InvForPV_0355.2_from_03551367A.2 npts=6 Xarray=[0.5        0.95        0.98        1.02        1.05         1.5] Yarray=[1  1  0  0 -1 -1]
New XYCurve.CurveFor_InvForPV_03552576.2_from_03551367A.2 npts=6 Xarray=[0.5        0.95        0.98        1.02        1.05         1.5] Yarray=[1  1  0  0 -1 -1]
New XYCurve.CurveFor_InvForPV_0355.3_from_03551367A.3 npts=6 Xarray=[0.5        0.95        0.98        1.02        1.05         1.5] Yarray=[1  1  0  0 -1 -1]
New XYCurve.CurveFor_InvForPV_03552576.3_from_03551367A.3 npts=6 Xarray=[0.5        0.95        0.98        1.02        1.05         1.5] Yarray=[1  1  0  0 -1 -1]
New XYCurve.CurveFor_InvForPV_0355.2_from_03551317.2 npts=6 Xarray=[0.5        0.95        0.98        1.02        1.05         1.5] Yarray=[1  1  0  0 -1 -1]
New XYCurve.CurveFor_InvForPV_03552576.2_from_03551317.2 npts=6 Xarray=[0.5        0.95        0.98        1.02        1.05         1.5] Yarray=[1  1  0  0 -1 -1]
New XYCurve.CurveFor_InvForPV_0355.3_from_03551317.3 npts=6 Xarray=[0.5        0.95        0.98        1.02        1.05         1.5] Yarray=[1  1  0  0 -1 -1]
New XYCurve.CurveFor_InvForPV_03552576.3_from_03551317.3 npts=6 Xarray=[0.5        0.95        0.98        1.02        1.05         1.5] Yarray=[1  1  0  0 -1 -1]
New XYCurve.CurveFor_InvForPV_0355.1_from_03551319.1 npts=6 Xarray=[0.5        0.95        0.98        1.02        1.05         1.5] Yarray=[1  1  0  0 -1 -1]
New XYCurve.CurveFor_InvForPV_03552576.1_from_03551319.1 npts=6 Xarray=[0.5        0.95        0.98        1.02        1.05         1.5] Yarray=[1  1  0  0 -1 -1]
New XYCurve.CurveFor_InvForPV_0355.3_from_03551319.3 npts=6 Xarray=[0.5        0.95        0.98        1.02        1.05         1.5] Yarray=[1  1  0  0 -1 -1]
New XYCurve.CurveFor_InvForPV_03552576.3_from_03551319.3 npts=6 Xarray=[0.5        0.95        0.98        1.02        1.05         1.5] Yarray=[1  1  0  0 -1 -1]
New XYCurve.CurveFor_InvForPV_0355.1_from_03551365.1 npts=6 Xarray=[0.5        0.95        0.98        1.02        1.05         1.5] Yarray=[1  1  0  0 -1 -1]
New XYCurve.CurveFor_InvForPV_03552576.1_from_03551365.1 npts=6 Xarray=[0.5        0.95        0.98        1.02        1.05         1.5] Yarray=[1  1  0  0 -1 -1]
New XYCurve.CurveFor_InvForPV_0355.3_from_03551365.3 npts=6 Xarray=[0.5        0.95        0.98        1.02        1.05         1.5] Yarray=[1  1  0  0 -1 -1]
New XYCurve.CurveFor_InvForPV_03552576.3_from_03551365.3 npts=6 Xarray=[0.5        0.95        0.98        1.02        1.05         1.5] Yarray=[1  1  0  0 -1 -1]
New XYCurve.CurveFor_InvForPV_0355.1_from_03551320.1 npts=6 Xarray=[0.5        0.95        0.98        1.02        1.05         1.5] Yarray=[1  1  0  0 -1 -1]
New XYCurve.CurveFor_InvForPV_03552576.1_from_03551320.1 npts=6 Xarray=[0.5        0.95        0.98        1.02        1.05         1.5] Yarray=[1  1  0  0 -1 -1]
New XYCurve.CurveFor_InvForPV_0355.2_from_03551320.2 npts=6 Xarray=[0.5        0.95        0.98        1.02        1.05         1.5] Yarray=[1  1  0  0 -1 -1]
New XYCurve.CurveFor_InvForPV_03552576.2_from_03551320.2 npts=6 Xarray=[0.5        0.95        0.98        1.02        1.05         1.5] Yarray=[1  1  0  0 -1 -1]
New XYCurve.CurveFor_InvForPV_0355.3_from_03551320.3 npts=6 Xarray=[0.5        0.95        0.98        1.02        1.05         1.5] Yarray=[1  1  0  0 -1 -1]
New XYCurve.CurveFor_InvForPV_03552576.3_from_03551320.3 npts=6 Xarray=[0.5        0.95        0.98        1.02        1.05         1.5] Yarray=[1  1  0  0 -1 -1]
New XYCurve.CurveFor_InvForPV_0355.1_from_03551321.1 npts=6 Xarray=[0.5        0.95        0.98        1.02        1.05         1.5] Yarray=[1  1  0  0 -1 -1]
New XYCurve.CurveFor_InvForPV_03552576.1_from_03551321.1 npts=6 Xarray=[0.5        0.95        0.98        1.02        1.05         1.5] Yarray=[1  1  0  0 -1 -1]
New XYCurve.CurveFor_InvForPV_0355.2_from_03551321.2 npts=6 Xarray=[0.5        0.95        0.98        1.02        1.05         1.5] Yarray=[1  1  0  0 -1 -1]
New XYCurve.CurveFor_InvForPV_03552576.2_from_03551321.2 npts=6 Xarray=[0.5        0.95        0.98        1.02        1.05         1.5] Yarray=[1  1  0  0 -1 -1]
New XYCurve.CurveFor_InvForPV_0355.3_from_03551321.3 npts=6 Xarray=[0.5        0.95        0.98        1.02        1.05         1.5] Yarray=[1  1  0  0 -1 -1]
New XYCurve.CurveFor_InvForPV_03552576.3_from_03551321.3 npts=6 Xarray=[0.5        0.95        0.98        1.02        1.05         1.5] Yarray=[1  1  0  0 -1 -1]
New XYCurve.CurveFor_InvForPV_0355.1_from_03551322.1 npts=6 Xarray=[0.5        0.95        0.98        1.02        1.05         1.5] Yarray=[1  1  0  0 -1 -1]
New XYCurve.CurveFor_InvForPV_03552576.1_from_03551322.1 npts=6 Xarray=[0.5        0.95        0.98        1.02        1.05         1.5] Yarray=[1  1  0  0 -1 -1]
New XYCurve.CurveFor_InvForPV_0355.3_from_03551322.3 npts=6 Xarray=[0.5        0.95        0.98        1.02        1.05         1.5] Yarray=[1  1  0  0 -1 -1]
New XYCurve.CurveFor_InvForPV_03552576.3_from_03551322.3 npts=6 Xarray=[0.5        0.95        0.98        1.02        1.05         1.5] Yarray=[1  1  0  0 -1 -1]
New XYCurve.CurveFor_InvForPV_0355.1_from_03551323.1 npts=6 Xarray=[0.5        0.95        0.98        1.02        1.05         1.5] Yarray=[1  1  0  0 -1 -1]
New XYCurve.CurveFor_InvForPV_03552576.1_from_03551323.1 npts=6 Xarray=[0.5        0.95        0.98        1.02        1.05         1.5] Yarray=[1  1  0  0 -1 -1]
New XYCurve.CurveFor_InvForPV_0355.2_from_03551323.2 npts=6 Xarray=[0.5        0.95        0.98        1.02        1.05         1.5] Yarray=[1  1  0  0 -1 -1]
New XYCurve.CurveFor_InvForPV_03552576.2_from_03551323.2 npts=6 Xarray=[0.5        0.95        0.98        1.02        1.05         1.5] Yarray=[1  1  0  0 -1 -1]
New XYCurve.CurveFor_InvForPV_0355.3_from_03551323.3 npts=6 Xarray=[0.5        0.95        0.98        1.02        1.05         1.5] Yarray=[1  1  0  0 -1 -1]
New XYCurve.CurveFor_InvForPV_03552576.3_from_03551323.3 npts=6 Xarray=[0.5        0.95        0.98        1.02        1.05         1.5] Yarray=[1  1  0  0 -1 -1]
New XYCurve.CurveFor_InvForPV_0355.1_from_03551324.1 npts=6 Xarray=[0.5        0.95        0.98        1.02        1.05         1.5] Yarray=[1  1  0  0 -1 -1]
New XYCurve.CurveFor_InvForPV_03552576.1_from_03551324.1 npts=6 Xarray=[0.5        0.95        0.98        1.02        1.05         1.5] Yarray=[1  1  0  0 -1 -1]
New XYCurve.CurveFor_InvForPV_0355.3_from_03551324.3 npts=6 Xarray=[0.5        0.95        0.98        1.02        1.05         1.5] Yarray=[1  1  0  0 -1 -1]
New XYCurve.CurveFor_InvForPV_03552576.3_from_03551324.3 npts=6 Xarray=[0.5        0.95        0.98        1.02        1.05         1.5] Yarray=[1  1  0  0 -1 -1]
New XYCurve.CurveFor_InvForPV_0355.1_from_03551326.1 npts=6 Xarray=[0.5        0.95        0.98        1.02        1.05         1.5] Yarray=[1  1  0  0 -1 -1]
New XYCurve.CurveFor_InvForPV_03552576.1_from_03551326.1 npts=6 Xarray=[0.5        0.95        0.98        1.02        1.05         1.5] Yarray=[1  1  0  0 -1 -1]
New XYCurve.CurveFor_InvForPV_0355.2_from_03551326.2 npts=6 Xarray=[0.5        0.95        0.98        1.02        1.05         1.5] Yarray=[1  1  0  0 -1 -1]
New XYCurve.CurveFor_InvForPV_03552576.2_from_03551326.2 npts=6 Xarray=[0.5        0.95        0.98        1.02        1.05         1.5] Yarray=[1  1  0  0 -1 -1]
New XYCurve.CurveFor_InvForPV_0355.1_from_03551325.1 npts=6 Xarray=[0.5        0.95        0.98        1.02        1.05         1.5] Yarray=[1  1  0  0 -1 -1]
New XYCurve.CurveFor_InvForPV_03552576.1_from_03551325.1 npts=6 Xarray=[0.5        0.95        0.98        1.02        1.05         1.5] Yarray=[1  1  0  0 -1 -1]
New XYCurve.CurveFor_InvForPV_0355.2_from_03551325.2 npts=6 Xarray=[0.5        0.95        0.98        1.02        1.05         1.5] Yarray=[1  1  0  0 -1 -1]
New XYCurve.CurveFor_InvForPV_03552576.2_from_03551325.2 npts=6 Xarray=[0.5        0.95        0.98        1.02        1.05         1.5] Yarray=[1  1  0  0 -1 -1]
New XYCurve.CurveFor_InvForPV_0355.3_from_03551325.3 npts=6 Xarray=[0.5        0.95        0.98        1.02        1.05         1.5] Yarray=[1  1  0  0 -1 -1]
New XYCurve.CurveFor_InvForPV_03552576.3_from_03551325.3 npts=6 Xarray=[0.5        0.95        0.98        1.02        1.05         1.5] Yarray=[1  1  0  0 -1 -1]
New XYCurve.CurveFor_InvForPV_0355.1_from_03551327.1 npts=6 Xarray=[0.5        0.95        0.98        1.02        1.05         1.5] Yarray=[1  1  0  0 -1 -1]
New XYCurve.CurveFor_InvForPV_03552576.1_from_03551327.1 npts=6 Xarray=[0.5        0.95        0.98        1.02        1.05         1.5] Yarray=[1  1  0  0 -1 -1]
New XYCurve.CurveFor_InvForPV_0355.2_from_03551327.2 npts=6 Xarray=[0.5        0.95        0.98        1.02        1.05         1.5] Yarray=[1  1  0  0 -1 -1]
New XYCurve.CurveFor_InvForPV_03552576.2_from_03551327.2 npts=6 Xarray=[0.5        0.95        0.98        1.02        1.05         1.5] Yarray=[1  1  0  0 -1 -1]
New XYCurve.CurveFor_InvForPV_0355.2_from_03551349.2 npts=6 Xarray=[0.5        0.95        0.98        1.02        1.05         1.5] Yarray=[1  1  0  0 -1 -1]
New XYCurve.CurveFor_InvForPV_03552576.2_from_03551349.2 npts=6 Xarray=[0.5        0.95        0.98        1.02        1.05         1.5] Yarray=[1  1  0  0 -1 -1]
New XYCurve.CurveFor_InvForPV_0355.3_from_03551349.3 npts=6 Xarray=[0.5        0.95        0.98        1.02        1.05         1.5] Yarray=[1  1  0  0 -1 -1]
New XYCurve.CurveFor_InvForPV_03552576.3_from_03551349.3 npts=6 Xarray=[0.5        0.95        0.98        1.02        1.05         1.5] Yarray=[1  1  0  0 -1 -1]
New XYCurve.CurveFor_InvForPV_0355.1_from_03551335.1 npts=6 Xarray=[0.5        0.95        0.98        1.02        1.05         1.5] Yarray=[1  1  0  0 -1 -1]
New XYCurve.CurveFor_InvForPV_03552576.1_from_03551335.1 npts=6 Xarray=[0.5        0.95        0.98        1.02        1.05         1.5] Yarray=[1  1  0  0 -1 -1]
New XYCurve.CurveFor_InvForPV_0355.2_from_03551335.2 npts=6 Xarray=[0.5        0.95        0.98        1.02        1.05         1.5] Yarray=[1  1  0  0 -1 -1]
New XYCurve.CurveFor_InvForPV_03552576.2_from_03551335.2 npts=6 Xarray=[0.5        0.95        0.98        1.02        1.05         1.5] Yarray=[1  1  0  0 -1 -1]
New XYCurve.CurveFor_InvForPV_0355.1_from_03551346.1 npts=6 Xarray=[0.5        0.95        0.98        1.02        1.05         1.5] Yarray=[1  1  0  0 -1 -1]
New XYCurve.CurveFor_InvForPV_03552576.1_from_03551346.1 npts=6 Xarray=[0.5        0.95        0.98        1.02        1.05         1.5] Yarray=[1  1  0  0 -1 -1]
New XYCurve.CurveFor_InvForPV_0355.2_from_03551346.2 npts=6 Xarray=[0.5        0.95        0.98        1.02        1.05         1.5] Yarray=[1  1  0  0 -1 -1]
New XYCurve.CurveFor_InvForPV_03552576.2_from_03551346.2 npts=6 Xarray=[0.5        0.95        0.98        1.02        1.05         1.5] Yarray=[1  1  0  0 -1 -1]
New XYCurve.CurveFor_InvForPV_0355.1_from_03551328A.1 npts=6 Xarray=[0.5        0.95        0.98        1.02        1.05         1.5] Yarray=[1  1  0  0 -1 -1]
New XYCurve.CurveFor_InvForPV_03552576.1_from_03551328A.1 npts=6 Xarray=[0.5        0.95        0.98        1.02        1.05         1.5] Yarray=[1  1  0  0 -1 -1]
New XYCurve.CurveFor_InvForPV_0355.1_from_03551329.1 npts=6 Xarray=[0.5        0.95        0.98        1.02        1.05         1.5] Yarray=[1  1  0  0 -1 -1]
New XYCurve.CurveFor_InvForPV_03552576.1_from_03551329.1 npts=6 Xarray=[0.5        0.95        0.98        1.02        1.05         1.5] Yarray=[1  1  0  0 -1 -1]
New XYCurve.CurveFor_InvForPV_0355.1_from_03551330.1 npts=6 Xarray=[0.5        0.95        0.98        1.02        1.05         1.5] Yarray=[1  1  0  0 -1 -1]
New XYCurve.CurveFor_InvForPV_03552576.1_from_03551330.1 npts=6 Xarray=[0.5        0.95        0.98        1.02        1.05         1.5] Yarray=[1  1  0  0 -1 -1]
New XYCurve.CurveFor_InvForPV_0355.1_from_03551331.1 npts=6 Xarray=[0.5        0.95        0.98        1.02        1.05         1.5] Yarray=[1  1  0  0 -1 -1]
New XYCurve.CurveFor_InvForPV_03552576.1_from_03551331.1 npts=6 Xarray=[0.5        0.95        0.98        1.02        1.05         1.5] Yarray=[1  1  0  0 -1 -1]
New XYCurve.CurveFor_InvForPV_0355.1_from_03551336.1 npts=6 Xarray=[0.5        0.95        0.98        1.02        1.05         1.5] Yarray=[1  1  0  0 -1 -1]
New XYCurve.CurveFor_InvForPV_03552576.1_from_03551336.1 npts=6 Xarray=[0.5        0.95        0.98        1.02        1.05         1.5] Yarray=[1  1  0  0 -1 -1]
New XYCurve.CurveFor_InvForPV_0355.2_from_03551336.2 npts=6 Xarray=[0.5        0.95        0.98        1.02        1.05         1.5] Yarray=[1  1  0  0 -1 -1]
New XYCurve.CurveFor_InvForPV_03552576.2_from_03551336.2 npts=6 Xarray=[0.5        0.95        0.98        1.02        1.05         1.5] Yarray=[1  1  0  0 -1 -1]
New XYCurve.CurveFor_InvForPV_0355.1_from_03551337.1 npts=6 Xarray=[0.5        0.95        0.98        1.02        1.05         1.5] Yarray=[1  1  0  0 -1 -1]
New XYCurve.CurveFor_InvForPV_03552576.1_from_03551337.1 npts=6 Xarray=[0.5        0.95        0.98        1.02        1.05         1.5] Yarray=[1  1  0  0 -1 -1]
New XYCurve.CurveFor_InvForPV_0355.2_from_03551337.2 npts=6 Xarray=[0.5        0.95        0.98        1.02        1.05         1.5] Yarray=[1  1  0  0 -1 -1]
New XYCurve.CurveFor_InvForPV_03552576.2_from_03551337.2 npts=6 Xarray=[0.5        0.95        0.98        1.02        1.05         1.5] Yarray=[1  1  0  0 -1 -1]
New XYCurve.CurveFor_InvForPV_0355.1_from_03551339.1 npts=6 Xarray=[0.5        0.95        0.98        1.02        1.05         1.5] Yarray=[1  1  0  0 -1 -1]
New XYCurve.CurveFor_InvForPV_03552576.1_from_03551339.1 npts=6 Xarray=[0.5        0.95        0.98        1.02        1.05         1.5] Yarray=[1  1  0  0 -1 -1]
New XYCurve.CurveFor_InvForPV_0355.2_from_03551339.2 npts=6 Xarray=[0.5        0.95        0.98        1.02        1.05         1.5] Yarray=[1  1  0  0 -1 -1]
New XYCurve.CurveFor_InvForPV_03552576.2_from_03551339.2 npts=6 Xarray=[0.5        0.95        0.98        1.02        1.05         1.5] Yarray=[1  1  0  0 -1 -1]
New XYCurve.CurveFor_InvForPV_0355.1_from_03551342.1 npts=6 Xarray=[0.5        0.95        0.98        1.02        1.05         1.5] Yarray=[1  1  0  0 -1 -1]
New XYCurve.CurveFor_InvForPV_03552576.1_from_03551342.1 npts=6 Xarray=[0.5        0.95        0.98        1.02        1.05         1.5] Yarray=[1  1  0  0 -1 -1]
New XYCurve.CurveFor_InvForPV_0355.2_from_03551342.2 npts=6 Xarray=[0.5        0.95        0.98        1.02        1.05         1.5] Yarray=[1  1  0  0 -1 -1]
New XYCurve.CurveFor_InvForPV_03552576.2_from_03551342.2 npts=6 Xarray=[0.5        0.95        0.98        1.02        1.05         1.5] Yarray=[1  1  0  0 -1 -1]
New XYCurve.CurveFor_InvForPV_0355.1_from_03551337A.1 npts=6 Xarray=[0.5        0.95        0.98        1.02        1.05         1.5] Yarray=[1  1  0  0 -1 -1]
New XYCurve.CurveFor_InvForPV_03552576.1_from_03551337A.1 npts=6 Xarray=[0.5        0.95        0.98        1.02        1.05         1.5] Yarray=[1  1  0  0 -1 -1]
New XYCurve.CurveFor_InvForPV_0355.2_from_03551337A.2 npts=6 Xarray=[0.5        0.95        0.98        1.02        1.05         1.5] Yarray=[1  1  0  0 -1 -1]
New XYCurve.CurveFor_InvForPV_03552576.2_from_03551337A.2 npts=6 Xarray=[0.5        0.95        0.98        1.02        1.05         1.5] Yarray=[1  1  0  0 -1 -1]
New XYCurve.CurveFor_InvForPV_0355.1_from_03551340.1 npts=6 Xarray=[0.5        0.95        0.98        1.02        1.05         1.5] Yarray=[1  1  0  0 -1 -1]
New XYCurve.CurveFor_InvForPV_03552576.1_from_03551340.1 npts=6 Xarray=[0.5        0.95        0.98        1.02        1.05         1.5] Yarray=[1  1  0  0 -1 -1]
New XYCurve.CurveFor_InvForPV_0355.2_from_03551340.2 npts=6 Xarray=[0.5        0.95        0.98        1.02        1.05         1.5] Yarray=[1  1  0  0 -1 -1]
New XYCurve.CurveFor_InvForPV_03552576.2_from_03551340.2 npts=6 Xarray=[0.5        0.95        0.98        1.02        1.05         1.5] Yarray=[1  1  0  0 -1 -1]
New XYCurve.CurveFor_InvForPV_0355.1_from_03551343.1 npts=6 Xarray=[0.5        0.95        0.98        1.02        1.05         1.5] Yarray=[1  1  0  0 -1 -1]
New XYCurve.CurveFor_InvForPV_03552576.1_from_03551343.1 npts=6 Xarray=[0.5        0.95        0.98        1.02        1.05         1.5] Yarray=[1  1  0  0 -1 -1]
New XYCurve.CurveFor_InvForPV_0355.2_from_03551343.2 npts=6 Xarray=[0.5        0.95        0.98        1.02        1.05         1.5] Yarray=[1  1  0  0 -1 -1]
New XYCurve.CurveFor_InvForPV_03552576.2_from_03551343.2 npts=6 Xarray=[0.5        0.95        0.98        1.02        1.05         1.5] Yarray=[1  1  0  0 -1 -1]
New XYCurve.CurveFor_InvForPV_0355.1_from_03551341.1 npts=6 Xarray=[0.5        0.95        0.98        1.02        1.05         1.5] Yarray=[1  1  0  0 -1 -1]
New XYCurve.CurveFor_InvForPV_03552576.1_from_03551341.1 npts=6 Xarray=[0.5        0.95        0.98        1.02        1.05         1.5] Yarray=[1  1  0  0 -1 -1]
New XYCurve.CurveFor_InvForPV_0355.2_from_03551341.2 npts=6 Xarray=[0.5        0.95        0.98        1.02        1.05         1.5] Yarray=[1  1  0  0 -1 -1]
New XYCurve.CurveFor_InvForPV_03552576.2_from_03551341.2 npts=6 Xarray=[0.5        0.95        0.98        1.02        1.05         1.5] Yarray=[1  1  0  0 -1 -1]
New XYCurve.CurveFor_InvForPV_0355.2_from_03551350.2 npts=6 Xarray=[0.5        0.95        0.98        1.02        1.05         1.5] Yarray=[1  1  0  0 -1 -1]
New XYCurve.CurveFor_InvForPV_03552576.2_from_03551350.2 npts=6 Xarray=[0.5        0.95        0.98        1.02        1.05         1.5] Yarray=[1  1  0  0 -1 -1]
New XYCurve.CurveFor_InvForPV_0355.3_from_03551350.3 npts=6 Xarray=[0.5        0.95        0.98        1.02        1.05         1.5] Yarray=[1  1  0  0 -1 -1]
...
New Pvsystem.PV_0355.1_from_03551.1 phases=1 bus1=0355.1 kv=6.93 irradiance=1 Pmpp=1.5586 kvar=0 kVA=1.6365 %cutin=0 %cutout=0 EffCurve=myeff P-TCurve=mypvst Vminpu=0.01
New Pvsystem.PV_0355.2_from_03551.2 phases=1 bus1=0355.2 kv=6.93 irradiance=1 Pmpp=1.5586 kvar=0 kVA=1.6365 %cutin=0 %cutout=0 EffCurve=myeff P-TCurve=mypvst Vminpu=0.01
New Pvsystem.PV_0355.3_from_03551.3 phases=1 bus1=0355.3 kv=6.93 irradiance=1 Pmpp=1.5586 kvar=0 kVA=1.6365 %cutin=0 %cutout=0 EffCurve=myeff P-TCurve=mypvst Vminpu=0.01
New Pvsystem.PV_0355.1_from_03552.1 phases=1 bus1=0355.1 kv=6.93 irradiance=1 Pmpp=2.8266 kvar=0 kVA=2.9679 %cutin=0 %cutout=0 EffCurve=myeff P-TCurve=mypvst Vminpu=0.01
New Pvsystem.PV_0355.2_from_03552.2 phases=1 bus1=0355.2 kv=6.93 irradiance=1 Pmpp=2.8266 kvar=0 kVA=2.9679 %cutin=0 %cutout=0 EffCurve=myeff P-TCurve=mypvst Vminpu=0.01
New Pvsystem.PV_0355.3_from_03552.3 phases=1 bus1=0355.3 kv=6.93 irradiance=1 Pmpp=2.8266 kvar=0 kVA=2.9679 %cutin=0 %cutout=0 EffCurve=myeff P-TCurve=mypvst Vminpu=0.01
New Pvsystem.PV_0355.1_from_03552A.1 phases=1 bus1=0355.1 kv=6.93 irradiance=1 Pmpp=0.98826 kvar=0 kVA=1.0377 %cutin=0 %cutout=0 EffCurve=myeff P-TCurve=mypvst Vminpu=0.01
New Pvsystem.PV_0355.2_from_03552A.2 phases=1 bus1=0355.2 kv=6.93 irradiance=1 Pmpp=0.98826 kvar=0 kVA=1.0377 %cutin=0 %cutout=0 EffCurve=myeff P-TCurve=mypvst Vminpu=0.01
New Pvsystem.PV_0355.3_from_03552A.3 phases=1 bus1=0355.3 kv=6.93 irradiance=1 Pmpp=0.98826 kvar=0 kVA=1.0377 %cutin=0 %cutout=0 EffCurve=myeff P-TCurve=mypvst Vminpu=0.01
New Pvsystem.PV_0355.1_from_035511.1 phases=1 bus1=0355.1 kv=6.93 irradiance=1 Pmpp=2.476 kvar=0.071609 kVA=2.6009 %cutin=0 %cutout=0 EffCurve=myeff P-TCurve=mypvst Vminpu=0.01
New Pvsystem.PV_03552576.1_from_035511.1 phases=1 bus1=03552576.1 kv=6.93 irradiance=1 Pmpp=0.65998 kvar=-0.071609 kVA=0.69704 %cutin=0 %cutout=0 EffCurve=myeff P-TCurve=mypvst Vminpu=0.01
New Pvsystem.PV_0355.1_from_035510A.1 phases=1 bus1=0355.1 kv=6.93 irradiance=1 Pmpp=5.1941 kvar=0.13539 kVA=5.4557 %cutin=0 %cutout=0 EffCurve=myeff P-TCurve=mypvst Vminpu=0.01
New Pvsystem.PV_03552576.1_from_035510A.1 phases=1 bus1=03552576.1 kv=6.93 irradiance=1 Pmpp=1.2459 kvar=-0.13539 kVA=1.3159 %cutin=0 %cutout=0 EffCurve=myeff P-TCurve=mypvst Vminpu=0.01
New Pvsystem.PV_0355.1_from_035512.1 phases=1 bus1=0355.1 kv=6.93 irradiance=1 Pmpp=1.4127 kvar=0.044443 kVA=1.4841 %cutin=0 %cutout=0 EffCurve=myeff P-TCurve=mypvst Vminpu=0.01
New Pvsystem.PV_03552576.1_from_035512.1 phases=1 bus1=03552576.1 kv=6.93 irradiance=1 Pmpp=0.41006 kvar=-0.044443 kVA=0.43308 %cutin=0 %cutout=0 EffCurve=myeff P-TCurve=mypvst Vminpu=0.01
New Pvsystem.PV_0355.2_from_035512.2 phases=1 bus1=0355.2 kv=6.93 irradiance=1 Pmpp=1.4127 kvar=0.044443 kVA=1.4841 %cutin=0 %cutout=0 EffCurve=myeff P-TCurve=mypvst Vminpu=0.01
New Pvsystem.PV_03552576.2_from_035512.2 phases=1 bus1=03552576.2 kv=6.93 irradiance=1 Pmpp=0.41006 kvar=-0.044443 kVA=0.43308 %cutin=0 %cutout=0 EffCurve=myeff P-TCurve=mypvst Vminpu=0.01
New Pvsystem.PV_0355.3_from_035512.3 phases=1 bus1=0355.3 kv=6.93 irradiance=1 Pmpp=1.4127 kvar=0.044443 kVA=1.4841 %cutin=0 %cutout=0 EffCurve=myeff P-TCurve=mypvst Vminpu=0.01
New Pvsystem.PV_03552576.3_from_035512.3 phases=1 bus1=03552576.3 kv=6.93 irradiance=1 Pmpp=0.41006 kvar=-0.044443 kVA=0.43308 %cutin=0 %cutout=0 EffCurve=myeff P-TCurve=mypvst Vminpu=0.01
New Pvsystem.PV_0355.1_from_03551201.1 phases=1 bus1=0355.1 kv=6.93 irradiance=1 Pmpp=3.6621 kvar=0.1152 kVA=3.8471 %cutin=0 %cutout=0 EffCurve=myeff P-TCurve=mypvst Vminpu=0.01
New Pvsystem.PV_03552576.1_from_03551201.1 phases=1 bus1=03552576.1 kv=6.93 irradiance=1 Pmpp=1.0629 kvar=-0.1152 kVA=1.1226 %cutin=0 %cutout=0 EffCurve=myeff P-TCurve=mypvst Vminpu=0.01
New Pvsystem.PV_0355.3_from_03551201.3 phases=1 bus1=0355.3 kv=6.93 irradiance=1 Pmpp=3.6621 kvar=0.1152 kVA=3.8471 %cutin=0 %cutout=0 EffCurve=myeff P-TCurve=mypvst Vminpu=0.01
New Pvsystem.PV_03552576.3_from_03551201.3 phases=1 bus1=03552576.3 kv=6.93 irradiance=1 Pmpp=1.0629 kvar=-0.1152 kVA=1.1226 %cutin=0 %cutout=0 EffCurve=myeff P-TCurve=mypvst Vminpu=0.01
New Pvsystem.PV_0355.1_from_03551306.1 phases=1 bus1=0355.1 kv=6.93 irradiance=1 Pmpp=1.854 kvar=0.073073 kVA=1.9482 %cutin=0 %cutout=0 EffCurve=myeff P-TCurve=mypvst Vminpu=0.01
New Pvsystem.PV_03552576.1_from_03551306.1 phases=1 bus1=03552576.1 kv=6.93 irradiance=1 Pmpp=0.67597 kvar=-0.073074 kVA=0.7139 %cutin=0 %cutout=0 EffCurve=myeff P-TCurve=mypvst Vminpu=0.01
New Pvsystem.PV_0355.2_from_03551306.2 phases=1 bus1=0355.2 kv=6.93 irradiance=1 Pmpp=1.854 kvar=0.073074 kVA=1.9482 %cutin=0 %cutout=0 EffCurve=myeff P-TCurve=mypvst Vminpu=0.01
New Pvsystem.PV_03552576.2_from_03551306.2 phases=1 bus1=03552576.2 kv=6.93 irradiance=1 Pmpp=0.67597 kvar=-0.073074 kVA=0.7139 %cutin=0 %cutout=0 EffCurve=myeff P-TCurve=mypvst Vminpu=0.01
New Pvsystem.PV_0355.3_from_03551306.3 phases=1 bus1=0355.3 kv=6.93 irradiance=1 Pmpp=1.854 kvar=0.073074 kVA=1.9482 %cutin=0 %cutout=0 EffCurve=myeff P-TCurve=mypvst Vminpu=0.01
New Pvsystem.PV_03552576.3_from_03551306.3 phases=1 bus1=03552576.3 kv=6.93 irradiance=1 Pmpp=0.67597 kvar=-0.073074 kVA=0.7139 %cutin=0 %cutout=0 EffCurve=myeff P-TCurve=mypvst Vminpu=0.01
New Pvsystem.PV_0355.1_from_035514.1 phases=1 bus1=0355.1 kv=6.93 irradiance=1 Pmpp=1.5756 kvar=0.065203 kVA=1.6558 %cutin=0 %cutout=0 EffCurve=myeff P-TCurve=mypvst Vminpu=0.01
New Pvsystem.PV_03552576.1_from_035514.1 phases=1 bus1=03552576.1 kv=6.93 irradiance=1 Pmpp=0.71719 kvar=-0.065203 kVA=0.75616 %cutin=0 %cutout=0 EffCurve=myeff P-TCurve=mypvst Vminpu=0.01
New Pvsystem.PV_0355.2_from_035514.2 phases=1 bus1=0355.2 kv=6.93 irradiance=1 Pmpp=1.5756 kvar=0.065203 kVA=1.6558 %cutin=0 %cutout=0 EffCurve=myeff P-TCurve=mypvst Vminpu=0.01
New Pvsystem.PV_03552576.2_from_035514.2 phases=1 bus1=03552576.2 kv=6.93 irradiance=1 Pmpp=0.71719 kvar=-0.065203 kVA=0.75616 %cutin=0 %cutout=0 EffCurve=myeff P-TCurve=mypvst Vminpu=0.01
New Pvsystem.PV_0355.3_from_035514.3 phases=1 bus1=0355.3 kv=6.93 irradiance=1 Pmpp=1.5756 kvar=0.065203 kVA=1.6558 %cutin=0 %cutout=0 EffCurve=myeff P-TCurve=mypvst Vminpu=0.01
New Pvsystem.PV_03552576.3_from_035514.3 phases=1 bus1=03552576.3 kv=6.93 irradiance=1 Pmpp=0.71719 kvar=-0.065203 kVA=0.75616 %cutin=0 %cutout=0 EffCurve=myeff P-TCurve=mypvst Vminpu=0.01
New Pvsystem.PV_0355.1_from_035513A.1 phases=1 bus1=0355.1 kv=6.93 irradiance=1 Pmpp=1.1491 kvar=0.045288 kVA=1.2074 %cutin=0 %cutout=0 EffCurve=myeff P-TCurve=mypvst Vminpu=0.01
New Pvsystem.PV_03552576.1_from_035513A.1 phases=1 bus1=03552576.1 kv=6.93 irradiance=1 Pmpp=0.41894 kvar=-0.045288 kVA=0.44245 %cutin=0 %cutout=0 EffCurve=myeff P-TCurve=mypvst Vminpu=0.01
New Pvsystem.PV_0355.3_from_035513A.3 phases=1 bus1=0355.3 kv=6.93 irradiance=1 Pmpp=1.1491 kvar=0.045288 kVA=1.2074 %cutin=0 %cutout=0 EffCurve=myeff P-TCurve=mypvst Vminpu=0.01
New Pvsystem.PV_03552576.3_from_035513A.3 phases=1 bus1=03552576.3 kv=6.93 irradiance=1 Pmpp=0.41894 kvar=-0.045288 kVA=0.44245 %cutin=0 %cutout=0 EffCurve=myeff P-TCurve=mypvst Vminpu=0.01
New Pvsystem.PV_0355.1_from_03551306A.1 phases=1 bus1=0355.1 kv=6.93 irradiance=1 Pmpp=1.7412 kvar=0.068626 kVA=1.8297 %cutin=0 %cutout=0 EffCurve=myeff P-TCurve=mypvst Vminpu=0.01
New Pvsystem.PV_03552576.1_from_03551306A.1 phases=1 bus1=03552576.1 kv=6.93 irradiance=1 Pmpp=0.63482 kvar=-0.068626 kVA=0.67045 %cutin=0 %cutout=0 EffCurve=myeff P-TCurve=mypvst Vminpu=0.01
New Pvsystem.PV_0355.2_from_03551306A.2 phases=1 bus1=0355.2 kv=6.93 irradiance=1 Pmpp=1.7412 kvar=0.068626 kVA=1.8297 %cutin=0 %cutout=0 EffCurve=myeff P-TCurve=mypvst Vminpu=0.01
New Pvsystem.PV_03552576.2_from_03551306A.2 phases=1 bus1=03552576.2 kv=6.93 irradiance=1 Pmpp=0.63482 kvar=-0.068626 kVA=0.67045 %cutin=0 %cutout=0 EffCurve=myeff P-TCurve=mypvst Vminpu=0.01
New Pvsystem.PV_0355.3_from_03551306A.3 phases=1 bus1=0355.3 kv=6.93 irradiance=1 Pmpp=1.7412 kvar=0.068626 kVA=1.8297 %cutin=0 %cutout=0 EffCurve=myeff P-TCurve=mypvst Vminpu=0.01
New Pvsystem.PV_03552576.3_from_03551306A.3 phases=1 bus1=03552576.3 kv=6.93 irradiance=1 Pmpp=0.63482 kvar=-0.068626 kVA=0.67045 %cutin=0 %cutout=0 EffCurve=myeff P-TCurve=mypvst Vminpu=0.01
New Pvsystem.PV_0355.2_from_035515.2 phases=1 bus1=0355.2 kv=6.93 irradiance=1 Pmpp=1.0078 kvar=0.043911 kVA=1.0592 %cutin=0 %cutout=0 EffCurve=myeff P-TCurve=mypvst Vminpu=0.01
New Pvsystem.PV_03552576.2_from_035515.2 phases=1 bus1=03552576.2 kv=6.93 irradiance=1 Pmpp=0.56022 kvar=-0.043911 kVA=0.59004 %cutin=0 %cutout=0 EffCurve=myeff P-TCurve=mypvst Vminpu=0.01
New Pvsystem.PV_0355.3_from_035515.3 phases=1 bus1=0355.3 kv=6.93 irradiance=1 Pmpp=1.0078 kvar=0.043911 kVA=1.0592 %cutin=0 %cutout=0 EffCurve=myeff P-TCurve=mypvst Vminpu=0.01
New Pvsystem.PV_03552576.3_from_035515.3 phases=1 bus1=03552576.3 kv=6.93 irradiance=1 Pmpp=0.56022 kvar=-0.043911 kVA=0.59004 %cutin=0 %cutout=0 EffCurve=myeff P-TCurve=mypvst Vminpu=0.01
New Pvsystem.PV_0355.1_from_03551301.1 phases=1 bus1=0355.1 kv=6.93 irradiance=1 Pmpp=3.4626 kvar=0.13647 kVA=3.6385 %cutin=0 %cutout=0 EffCurve=myeff P-TCurve=mypvst Vminpu=0.01
New Pvsystem.PV_03552576.1_from_03551301.1 phases=1 bus1=03552576.1 kv=6.93 irradiance=1 Pmpp=1.2624 kvar=-0.13647 kVA=1.3333 %cutin=0 %cutout=0 EffCurve=myeff P-TCurve=mypvst Vminpu=0.01
New Pvsystem.PV_0355.3_from_03551301.3 phases=1 bus1=0355.3 kv=6.93 irradiance=1 Pmpp=3.4626 kvar=0.13647 kVA=3.6385 %cutin=0 %cutout=0 EffCurve=myeff P-TCurve=mypvst Vminpu=0.01
New Pvsystem.PV_03552576.3_from_03551301.3 phases=1 bus1=03552576.3 kv=6.93 irradiance=1 Pmpp=1.2624 kvar=-0.13647 kVA=1.3333 %cutin=0 %cutout=0 EffCurve=myeff P-TCurve=mypvst Vminpu=0.01
New Pvsystem.PV_0355.1_from_03551302.1 phases=1 bus1=0355.1 kv=6.93 irradiance=1 Pmpp=2.5203 kvar=0.099334 kVA=2.6484 %cutin=0 %cutout=0 EffCurve=myeff P-TCurve=mypvst Vminpu=0.01
New Pvsystem.PV_03552576.1_from_03551302.1 phases=1 bus1=03552576.1 kv=6.93 irradiance=1 Pmpp=0.91889 kvar=-0.099334 kVA=0.97046 %cutin=0 %cutout=0 EffCurve=myeff P-TCurve=mypvst Vminpu=0.01
New Pvsystem.PV_0355.3_from_03551302.3 phases=1 bus1=0355.3 kv=6.93 irradiance=1 Pmpp=2.5203 kvar=0.099334 kVA=2.6484 %cutin=0 %cutout=0 EffCurve=myeff P-TCurve=mypvst Vminpu=0.01
New Pvsystem.PV_03552576.3_from_03551302.3 phases=1 bus1=03552576.3 kv=6.93 irradiance=1 Pmpp=0.91889 kvar=-0.099334 kVA=0.97046 %cutin=0 %cutout=0 EffCurve=myeff P-TCurve=mypvst Vminpu=0.01
New Pvsystem.PV_0355.1_from_03551307.1 phases=1 bus1=0355.1 kv=6.93 irradiance=1 Pmpp=2.0037 kvar=0.078971 kVA=2.1055 %cutin=0 %cutout=0 EffCurve=myeff P-TCurve=mypvst Vminpu=0.01
New Pvsystem.PV_03552576.1_from_03551307.1 phases=1 bus1=03552576.1 kv=6.93 irradiance=1 Pmpp=0.73053 kvar=-0.078971 kVA=0.77152 %cutin=0 %cutout=0 EffCurve=myeff P-TCurve=mypvst Vminpu=0.01
New Pvsystem.PV_0355.3_from_03551307.3 phases=1 bus1=0355.3 kv=6.93 irradiance=1 Pmpp=2.0037 kvar=0.078971 kVA=2.1055 %cutin=0 %cutout=0 EffCurve=myeff P-TCurve=mypvst Vminpu=0.01
New Pvsystem.PV_03552576.3_from_03551307.3 phases=1 bus1=03552576.3 kv=6.93 irradiance=1 Pmpp=0.73053 kvar=-0.078971 kVA=0.77152 %cutin=0 %cutout=0 EffCurve=myeff P-TCurve=mypvst Vminpu=0.01
New Pvsystem.PV_0355.1_from_03551308.1 phases=1 bus1=0355.1 kv=6.93 irradiance=1 Pmpp=1.5593 kvar=0.061457 kVA=1.6385 %cutin=0 %cutout=0 EffCurve=myeff P-TCurve=mypvst Vminpu=0.01
New Pvsystem.PV_03552576.1_from_03551308.1 phases=1 bus1=03552576.1 kv=6.93 irradiance=1 Pmpp=0.56851 kvar=-0.061457 kVA=0.60041 %cutin=0 %cutout=0 EffCurve=myeff P-TCurve=mypvst Vminpu=0.01
New Pvsystem.PV_0355.2_from_03551308.2 phases=1 bus1=0355.2 kv=6.93 irradiance=1 Pmpp=1.5593 kvar=0.061457 kVA=1.6385 %cutin=0 %cutout=0 EffCurve=myeff P-TCurve=mypvst Vminpu=0.01
New Pvsystem.PV_03552576.2_from_03551308.2 phases=1 bus1=03552576.2 kv=6.93 irradiance=1 Pmpp=0.56851 kvar=-0.061457 kVA=0.60041 %cutin=0 %cutout=0 EffCurve=myeff P-TCurve=mypvst Vminpu=0.01
New Pvsystem.PV_0355.3_from_03551308.3 phases=1 bus1=0355.3 kv=6.93 irradiance=1 Pmpp=1.5593 kvar=0.061457 kVA=1.6385 %cutin=0 %cutout=0 EffCurve=myeff P-TCurve=mypvst Vminpu=0.01
New Pvsystem.PV_03552576.3_from_03551308.3 phases=1 bus1=03552576.3 kv=6.93 irradiance=1 Pmpp=0.56851 kvar=-0.061457 kVA=0.60041 %cutin=0 %cutout=0 EffCurve=myeff P-TCurve=mypvst Vminpu=0.01
New Pvsystem.PV_0355.1_from_03551308A.1 phases=1 bus1=0355.1 kv=6.93 irradiance=1 Pmpp=2.9262 kvar=0.11533 kVA=3.0749 %cutin=0 %cutout=0 EffCurve=myeff P-TCurve=mypvst Vminpu=0.01
New Pvsystem.PV_03552576.1_from_03551308A.1 phases=1 bus1=03552576.1 kv=6.93 irradiance=1 Pmpp=1.0669 kvar=-0.11533 kVA=1.1268 %cutin=0 %cutout=0 EffCurve=myeff P-TCurve=mypvst Vminpu=0.01
New Pvsystem.PV_0355.3_from_03551308A.3 phases=1 bus1=0355.3 kv=6.93 irradiance=1 Pmpp=2.9263 kvar=0.11533 kVA=3.075 %cutin=0 %cutout=0 EffCurve=myeff P-TCurve=mypvst Vminpu=0.01
New Pvsystem.PV_03552576.3_from_03551308A.3 phases=1 bus1=03552576.3 kv=6.93 irradiance=1 Pmpp=1.0669 kvar=-0.11533 kVA=1.1268 %cutin=0 %cutout=0 EffCurve=myeff P-TCurve=mypvst Vminpu=0.01
New Pvsystem.PV_0355.1_from_03551315.1 phases=1 bus1=0355.1 kv=6.93 irradiance=1 Pmpp=1.0479 kvar=0.041302 kVA=1.1012 %cutin=0 %cutout=0 EffCurve=myeff P-TCurve=mypvst Vminpu=0.01
New Pvsystem.PV_03552576.1_from_03551315.1 phases=1 bus1=03552576.1 kv=6.93 irradiance=1 Pmpp=0.38207 kvar=-0.041302 kVA=0.40351 %cutin=0 %cutout=0 EffCurve=myeff P-TCurve=mypvst Vminpu=0.01
New Pvsystem.PV_0355.3_from_03551315.3 phases=1 bus1=0355.3 kv=6.93 irradiance=1 Pmpp=1.0479 kvar=0.041302 kVA=1.1012 %cutin=0 %cutout=0 EffCurve=myeff P-TCurve=mypvst Vminpu=0.01
New Pvsystem.PV_03552576.3_from_03551315.3 phases=1 bus1=03552576.3 kv=6.93 irradiance=1 Pmpp=0.38207 kvar=-0.041302 kVA=0.40351 %cutin=0 %cutout=0 EffCurve=myeff P-TCurve=mypvst Vminpu=0.01
New Pvsystem.PV_0355.1_from_03551309.1 phases=1 bus1=0355.1 kv=6.93 irradiance=1 Pmpp=3.0698 kvar=0.12099 kVA=3.2258 %cutin=0 %cutout=0 EffCurve=myeff P-TCurve=mypvst Vminpu=0.01
New Pvsystem.PV_03552576.1_from_03551309.1 phases=1 bus1=03552576.1 kv=6.93 irradiance=1 Pmpp=1.1192 kvar=-0.12099 kVA=1.1821 %cutin=0 %cutout=0 EffCurve=myeff P-TCurve=mypvst Vminpu=0.01
New Pvsystem.PV_0355.3_from_03551309.3 phases=1 bus1=0355.3 kv=6.93 irradiance=1 Pmpp=3.0699 kvar=0.121 kVA=3.2259 %cutin=0 %cutout=0 EffCurve=myeff P-TCurve=mypvst Vminpu=0.01
New Pvsystem.PV_03552576.3_from_03551309.3 phases=1 bus1=03552576.3 kv=6.93 irradiance=1 Pmpp=1.1193 kvar=-0.121 kVA=1.1821 %cutin=0 %cutout=0 EffCurve=myeff P-TCurve=mypvst Vminpu=0.01
New Pvsystem.PV_0355.1_from_03551310.1 phases=1 bus1=0355.1 kv=6.93 irradiance=1 Pmpp=2.0037 kvar=0.078971 kVA=2.1055 %cutin=0 %cutout=0 EffCurve=myeff P-TCurve=mypvst Vminpu=0.01
New Pvsystem.PV_03552576.1_from_03551310.1 phases=1 bus1=03552576.1 kv=6.93 irradiance=1 Pmpp=0.73053 kvar=-0.078971 kVA=0.77152 %cutin=0 %cutout=0 EffCurve=myeff P-TCurve=mypvst Vminpu=0.01
New Pvsystem.PV_0355.3_from_03551310.3 phases=1 bus1=0355.3 kv=6.93 irradiance=1 Pmpp=2.0037 kvar=0.078971 kVA=2.1055 %cutin=0 %cutout=0 EffCurve=myeff P-TCurve=mypvst Vminpu=0.01
New Pvsystem.PV_03552576.3_from_03551310.3 phases=1 bus1=03552576.3 kv=6.93 irradiance=1 Pmpp=0.73053 kvar=-0.078971 kVA=0.77152 %cutin=0 %cutout=0 EffCurve=myeff P-TCurve=mypvst Vminpu=0.01
New Pvsystem.PV_0355.1_from_03551311.1 phases=1 bus1=0355.1 kv=6.93 irradiance=1 Pmpp=3.4626 kvar=0.13647 kVA=3.6385 %cutin=0 %cutout=0 EffCurve=myeff P-TCurve=mypvst Vminpu=0.01
New Pvsystem.PV_03552576.1_from_03551311.1 phases=1 bus1=03552576.1 kv=6.93 irradiance=1 Pmpp=1.2624 kvar=-0.13647 kVA=1.3333 %cutin=0 %cutout=0 EffCurve=myeff P-TCurve=mypvst Vminpu=0.01
New Pvsystem.PV_0355.3_from_03551311.3 phases=1 bus1=0355.3 kv=6.93 irradiance=1 Pmpp=3.4626 kvar=0.13647 kVA=3.6385 %cutin=0 %cutout=0 EffCurve=myeff P-TCurve=mypvst Vminpu=0.01
New Pvsystem.PV_03552576.3_from_03551311.3 phases=1 bus1=03552576.3 kv=6.93 irradiance=1 Pmpp=1.2624 kvar=-0.13647 kVA=1.3333 %cutin=0 %cutout=0 EffCurve=myeff P-TCurve=mypvst Vminpu=0.01
New Pvsystem.PV_0355.2_from_03551367A.2 phases=1 bus1=0355.2 kv=6.93 irradiance=1 Pmpp=3.5468 kvar=0.13979 kVA=3.7271 %cutin=0 %cutout=0 EffCurve=myeff P-TCurve=mypvst Vminpu=0.01
New Pvsystem.PV_03552576.2_from_03551367A.2 phases=1 bus1=03552576.2 kv=6.93 irradiance=1 Pmpp=1.2932 kvar=-0.13979 kVA=1.3657 %cutin=0 %cutout=0 EffCurve=myeff P-TCurve=mypvst Vminpu=0.01
New Pvsystem.PV_0355.3_from_03551367A.3 phases=1 bus1=0355.3 kv=6.93 irradiance=1 Pmpp=3.5468 kvar=0.13979 kVA=3.7271 %cutin=0 %cutout=0 EffCurve=myeff P-TCurve=mypvst Vminpu=0.01
New Pvsystem.PV_03552576.3_from_03551367A.3 phases=1 bus1=03552576.3 kv=6.93 irradiance=1 Pmpp=1.2932 kvar=-0.13979 kVA=1.3657 %cutin=0 %cutout=0 EffCurve=myeff P-TCurve=mypvst Vminpu=0.01
New Pvsystem.PV_0355.2_from_03551317.2 phases=1 bus1=0355.2 kv=6.93 irradiance=1 Pmpp=2.3389 kvar=0.092185 kVA=2.4578 %cutin=0 %cutout=0 EffCurve=myeff P-TCurve=mypvst Vminpu=0.01
New Pvsystem.PV_03552576.2_from_03551317.2 phases=1 bus1=03552576.2 kv=6.93 irradiance=1 Pmpp=0.85276 kvar=-0.092185 kVA=0.90062 %cutin=0 %cutout=0 EffCurve=myeff P-TCurve=mypvst Vminpu=0.01
New Pvsystem.PV_0355.3_from_03551317.3 phases=1 bus1=0355.3 kv=6.93 irradiance=1 Pmpp=2.3389 kvar=0.092185 kVA=2.4578 %cutin=0 %cutout=0 EffCurve=myeff P-TCurve=mypvst Vminpu=0.01
New Pvsystem.PV_03552576.3_from_03551317.3 phases=1 bus1=03552576.3 kv=6.93 irradiance=1 Pmpp=0.85276 kvar=-0.092185 kVA=0.90062 %cutin=0 %cutout=0 EffCurve=myeff P-TCurve=mypvst Vminpu=0.01
New Pvsystem.PV_0355.1_from_03551319.1 phases=1 bus1=0355.1 kv=6.93 irradiance=1 Pmpp=3.1658 kvar=0.12477 kVA=3.3266 %cutin=0 %cutout=0 EffCurve=myeff P-TCurve=mypvst Vminpu=0.01
New Pvsystem.PV_03552576.1_from_03551319.1 phases=1 bus1=03552576.1 kv=6.93 irradiance=1 Pmpp=1.1542 kvar=-0.12477 kVA=1.219 %cutin=0 %cutout=0 EffCurve=myeff P-TCurve=mypvst Vminpu=0.01
New Pvsystem.PV_0355.3_from_03551319.3 phases=1 bus1=0355.3 kv=6.93 irradiance=1 Pmpp=3.1658 kvar=0.12477 kVA=3.3266 %cutin=0 %cutout=0 EffCurve=myeff P-TCurve=mypvst Vminpu=0.01
New Pvsystem.PV_03552576.3_from_03551319.3 phases=1 bus1=03552576.3 kv=6.93 irradiance=1 Pmpp=1.1542 kvar=-0.12477 kVA=1.219 %cutin=0 %cutout=0 EffCurve=myeff P-TCurve=mypvst Vminpu=0.01
New Pvsystem.PV_0355.1_from_03551365.1 phases=1 bus1=0355.1 kv=6.93 irradiance=1 Pmpp=2.7041 kvar=0.10658 kVA=2.8415 %cutin=0 %cutout=0 EffCurve=myeff P-TCurve=mypvst Vminpu=0.01
New Pvsystem.PV_03552576.1_from_03551365.1 phases=1 bus1=03552576.1 kv=6.93 irradiance=1 Pmpp=0.9859 kvar=-0.10658 kVA=1.0412 %cutin=0 %cutout=0 EffCurve=myeff P-TCurve=mypvst Vminpu=0.01
New Pvsystem.PV_0355.3_from_03551365.3 phases=1 bus1=0355.3 kv=6.93 irradiance=1 Pmpp=2.7041 kvar=0.10658 kVA=2.8415 %cutin=0 %cutout=0 EffCurve=myeff P-TCurve=mypvst Vminpu=0.01
New Pvsystem.PV_03552576.3_from_03551365.3 phases=1 bus1=03552576.3 kv=6.93 irradiance=1 Pmpp=0.9859 kvar=-0.10658 kVA=1.0412 %cutin=0 %cutout=0 EffCurve=myeff P-TCurve=mypvst Vminpu=0.01
New Pvsystem.PV_0355.1_from_03551320.1 phases=1 bus1=0355.1 kv=6.93 irradiance=1 Pmpp=1.3358 kvar=0.052647 kVA=1.4037 %cutin=0 %cutout=0 EffCurve=myeff P-TCurve=mypvst Vminpu=0.01
New Pvsystem.PV_03552576.1_from_03551320.1 phases=1 bus1=03552576.1 kv=6.93 irradiance=1 Pmpp=0.48702 kvar=-0.052648 kVA=0.51435 %cutin=0 %cutout=0 EffCurve=myeff P-TCurve=mypvst Vminpu=0.01
New Pvsystem.PV_0355.2_from_03551320.2 phases=1 bus1=0355.2 kv=6.93 irradiance=1 Pmpp=1.3358 kvar=0.052648 kVA=1.4037 %cutin=0 %cutout=0 EffCurve=myeff P-TCurve=mypvst Vminpu=0.01
New Pvsystem.PV_03552576.2_from_03551320.2 phases=1 bus1=03552576.2 kv=6.93 irradiance=1 Pmpp=0.48702 kvar=-0.052648 kVA=0.51435 %cutin=0 %cutout=0 EffCurve=myeff P-TCurve=mypvst Vminpu=0.01
New Pvsystem.PV_0355.3_from_03551320.3 phases=1 bus1=0355.3 kv=6.93 irradiance=1 Pmpp=1.3358 kvar=0.052648 kVA=1.4037 %cutin=0 %cutout=0 EffCurve=myeff P-TCurve=mypvst Vminpu=0.01
New Pvsystem.PV_03552576.3_from_03551320.3 phases=1 bus1=03552576.3 kv=6.93 irradiance=1 Pmpp=0.48702 kvar=-0.052648 kVA=0.51435 %cutin=0 %cutout=0 EffCurve=myeff P-TCurve=mypvst Vminpu=0.01
New Pvsystem.PV_0355.1_from_03551321.1 phases=1 bus1=0355.1 kv=6.93 irradiance=1 Pmpp=2.1105 kvar=0.083182 kVA=2.2178 %cutin=0 %cutout=0 EffCurve=myeff P-TCurve=mypvst Vminpu=0.01
New Pvsystem.PV_03552576.1_from_03551321.1 phases=1 bus1=03552576.1 kv=6.93 irradiance=1 Pmpp=0.76948 kvar=-0.083183 kVA=0.81266 %cutin=0 %cutout=0 EffCurve=myeff P-TCurve=mypvst Vminpu=0.01
New Pvsystem.PV_0355.2_from_03551321.2 phases=1 bus1=0355.2 kv=6.93 irradiance=1 Pmpp=2.1105 kvar=0.083183 kVA=2.2178 %cutin=0 %cutout=0 EffCurve=myeff P-TCurve=mypvst Vminpu=0.01
New Pvsystem.PV_03552576.2_from_03551321.2 phases=1 bus1=03552576.2 kv=6.93 irradiance=1 Pmpp=0.76948 kvar=-0.083183 kVA=0.81266 %cutin=0 %cutout=0 EffCurve=myeff P-TCurve=mypvst Vminpu=0.01
New Pvsystem.PV_0355.3_from_03551321.3 phases=1 bus1=0355.3 kv=6.93 irradiance=1 Pmpp=2.1105 kvar=0.083183 kVA=2.2178 %cutin=0 %cutout=0 EffCurve=myeff P-TCurve=mypvst Vminpu=0.01
New Pvsystem.PV_03552576.3_from_03551321.3 phases=1 bus1=03552576.3 kv=6.93 irradiance=1 Pmpp=0.76948 kvar=-0.083183 kVA=0.81266 %cutin=0 %cutout=0 EffCurve=myeff P-TCurve=mypvst Vminpu=0.01
New Pvsystem.PV_0355.1_from_03551322.1 phases=1 bus1=0355.1 kv=6.93 irradiance=1 Pmpp=3.1658 kvar=0.12477 kVA=3.3266 %cutin=0 %cutout=0 EffCurve=myeff P-TCurve=mypvst Vminpu=0.01
New Pvsystem.PV_03552576.1_from_03551322.1 phases=1 bus1=03552576.1 kv=6.93 irradiance=1 Pmpp=1.1542 kvar=-0.12477 kVA=1.219 %cutin=0 %cutout=0 EffCurve=myeff P-TCurve=mypvst Vminpu=0.01
New Pvsystem.PV_0355.3_from_03551322.3 phases=1 bus1=0355.3 kv=6.93 irradiance=1 Pmpp=3.1658 kvar=0.12477 kVA=3.3266 %cutin=0 %cutout=0 EffCurve=myeff P-TCurve=mypvst Vminpu=0.01
New Pvsystem.PV_03552576.3_from_03551322.3 phases=1 bus1=03552576.3 kv=6.93 irradiance=1 Pmpp=1.1542 kvar=-0.12477 kVA=1.219 %cutin=0 %cutout=0 EffCurve=myeff P-TCurve=mypvst Vminpu=0.01
New Pvsystem.PV_0355.1_from_03551323.1 phases=1 bus1=0355.1 kv=6.93 irradiance=1 Pmpp=0.73868 kvar=0.029114 kVA=0.77622 %cutin=0 %cutout=0 EffCurve=myeff P-TCurve=mypvst Vminpu=0.01
New Pvsystem.PV_03552576.1_from_03551323.1 phases=1 bus1=03552576.1 kv=6.93 irradiance=1 Pmpp=0.26932 kvar=-0.029114 kVA=0.28443 %cutin=0 %cutout=0 EffCurve=myeff P-TCurve=mypvst Vminpu=0.01
New Pvsystem.PV_0355.2_from_03551323.2 phases=1 bus1=0355.2 kv=6.93 irradiance=1 Pmpp=0.73868 kvar=0.029114 kVA=0.77622 %cutin=0 %cutout=0 EffCurve=myeff P-TCurve=mypvst Vminpu=0.01
New Pvsystem.PV_03552576.2_from_03551323.2 phases=1 bus1=03552576.2 kv=6.93 irradiance=1 Pmpp=0.26932 kvar=-0.029114 kVA=0.28443 %cutin=0 %cutout=0 EffCurve=myeff P-TCurve=mypvst Vminpu=0.01
New Pvsystem.PV_0355.3_from_03551323.3 phases=1 bus1=0355.3 kv=6.93 irradiance=1 Pmpp=0.73868 kvar=0.029114 kVA=0.77622 %cutin=0 %cutout=0 EffCurve=myeff P-TCurve=mypvst Vminpu=0.01
New Pvsystem.PV_03552576.3_from_03551323.3 phases=1 bus1=03552576.3 kv=6.93 irradiance=1 Pmpp=0.26932 kvar=-0.029114 kVA=0.28443 %cutin=0 %cutout=0 EffCurve=myeff P-TCurve=mypvst Vminpu=0.01
New Pvsystem.PV_0355.1_from_03551324.1 phases=1 bus1=0355.1 kv=6.93 irradiance=1 Pmpp=4.3529 kvar=0.17156 kVA=4.5741 %cutin=0 %cutout=0 EffCurve=myeff P-TCurve=mypvst Vminpu=0.01
New Pvsystem.PV_03552576.1_from_03551324.1 phases=1 bus1=03552576.1 kv=6.93 irradiance=1 Pmpp=1.5871 kvar=-0.17156 kVA=1.6761 %cutin=0 %cutout=0 EffCurve=myeff P-TCurve=mypvst Vminpu=0.01
New Pvsystem.PV_0355.3_from_03551324.3 phases=1 bus1=0355.3 kv=6.93 irradiance=1 Pmpp=4.3529 kvar=0.17156 kVA=4.5741 %cutin=0 %cutout=0 EffCurve=myeff P-TCurve=mypvst Vminpu=0.01
New Pvsystem.PV_03552576.3_from_03551324.3 phases=1 bus1=03552576.3 kv=6.93 irradiance=1 Pmpp=1.5871 kvar=-0.17156 kVA=1.6761 %cutin=0 %cutout=0 EffCurve=myeff P-TCurve=mypvst Vminpu=0.01
New Pvsystem.PV_0355.1_from_03551326.1 phases=1 bus1=0355.1 kv=6.93 irradiance=1 Pmpp=2.9263 kvar=0.11533 kVA=3.075 %cutin=0 %cutout=0 EffCurve=myeff P-TCurve=mypvst Vminpu=0.01
New Pvsystem.PV_03552576.1_from_03551326.1 phases=1 bus1=03552576.1 kv=6.93 irradiance=1 Pmpp=1.0669 kvar=-0.11534 kVA=1.1268 %cutin=0 %cutout=0 EffCurve=myeff P-TCurve=mypvst Vminpu=0.01
New Pvsystem.PV_0355.2_from_03551326.2 phases=1 bus1=0355.2 kv=6.93 irradiance=1 Pmpp=2.9262 kvar=0.11533 kVA=3.0749 %cutin=0 %cutout=0 EffCurve=myeff P-TCurve=mypvst Vminpu=0.01
New Pvsystem.PV_03552576.2_from_03551326.2 phases=1 bus1=03552576.2 kv=6.93 irradiance=1 Pmpp=1.0669 kvar=-0.11533 kVA=1.1268 %cutin=0 %cutout=0 EffCurve=myeff P-TCurve=mypvst Vminpu=0.01
New Pvsystem.PV_0355.1_from_03551325.1 phases=1 bus1=0355.1 kv=6.93 irradiance=1 Pmpp=1.9508 kvar=0.076889 kVA=2.05 %cutin=0 %cutout=0 EffCurve=myeff P-TCurve=mypvst Vminpu=0.01
New Pvsystem.PV_03552576.1_from_03551325.1 phases=1 bus1=03552576.1 kv=6.93 irradiance=1 Pmpp=0.71126 kvar=-0.076889 kVA=0.75118 %cutin=0 %cutout=0 EffCurve=myeff P-TCurve=mypvst Vminpu=0.01
New Pvsystem.PV_0355.2_from_03551325.2 phases=1 bus1=0355.2 kv=6.93 irradiance=1 Pmpp=1.9508 kvar=0.076889 kVA=2.05 %cutin=0 %cutout=0 EffCurve=myeff P-TCurve=mypvst Vminpu=0.01
New Pvsystem.PV_03552576.2_from_03551325.2 phases=1 bus1=03552576.2 kv=6.93 irradiance=1 Pmpp=0.71126 kvar=-0.076889 kVA=0.75118 %cutin=0 %cutout=0 EffCurve=myeff P-TCurve=mypvst Vminpu=0.01
New Pvsystem.PV_0355.3_from_03551325.3 phases=1 bus1=0355.3 kv=6.93 irradiance=1 Pmpp=1.9508 kvar=0.076889 kVA=2.05 %cutin=0 %cutout=0 EffCurve=myeff P-TCurve=mypvst Vminpu=0.01
New Pvsystem.PV_03552576.3_from_03551325.3 phases=1 bus1=03552576.3 kv=6.93 irradiance=1 Pmpp=0.71126 kvar=-0.076889 kVA=0.75118 %cutin=0 %cutout=0 EffCurve=myeff P-TCurve=mypvst Vminpu=0.01
New Pvsystem.PV_0355.1_from_03551327.1 phases=1 bus1=0355.1 kv=6.93 irradiance=1 Pmpp=1.1491 kvar=0.045288 kVA=1.2074 %cutin=0 %cutout=0 EffCurve=myeff P-TCurve=mypvst Vminpu=0.01
New Pvsystem.PV_03552576.1_from_03551327.1 phases=1 bus1=03552576.1 kv=6.93 irradiance=1 Pmpp=0.41894 kvar=-0.045288 kVA=0.44245 %cutin=0 %cutout=0 EffCurve=myeff P-TCurve=mypvst Vminpu=0.01
New Pvsystem.PV_0355.2_from_03551327.2 phases=1 bus1=0355.2 kv=6.93 irradiance=1 Pmpp=1.1491 kvar=0.045288 kVA=1.2074 %cutin=0 %cutout=0 EffCurve=myeff P-TCurve=mypvst Vminpu=0.01
New Pvsystem.PV_03552576.2_from_03551327.2 phases=1 bus1=03552576.2 kv=6.93 irradiance=1 Pmpp=0.41894 kvar=-0.045288 kVA=0.44245 %cutin=0 %cutout=0 EffCurve=myeff P-TCurve=mypvst Vminpu=0.01
...